FX5
     RDKit          3D

 20 22  0  0  0  0  0  0  0  0999 V2000
    4.6770  -10.2700    1.3650 C   0  0  0  0  0  0  0  0  0  1  0  0
    5.9050   -9.5940    1.2990 C   0  0  0  0  0  0  0  0  0  2  0  0
    7.0700  -10.3700    1.1580 C   0  0  0  0  0  0  0  0  0  3  0  0
    5.9640   -8.1040    1.3880 C   0  0  0  0  0  0  0  0  0  4  0  0
    4.8250   -7.2830    1.4460 C   0  0  0  0  0  0  0  0  0  5  0  0
    6.3400   -5.3840    1.4990 C   0  0  0  0  0  0  0  0  0  6  0  0
    7.1990   -7.5770    1.4200 N   0  0  0  0  0  0  0  0  0  7  0  0
    2.9890   -2.7970    1.0860 C   0  0  0  0  0  0  0  0  0  8  0  0
    2.7300   -5.3550    2.3720 C   0  0  0  0  0  0  0  0  0  9  0  0
    6.9990  -11.7700    1.1070 C   0  0  0  0  0  0  0  0  0 10  0  0
    3.7140   -4.0270    0.5900 C   0  0  0  0  0  0  0  0  0 11  0  0
    1.9540   -4.1480    2.8600 C   0  0  0  0  0  0  0  0  0 12  0  0
    5.7740  -12.4050    1.1890 C   0  0  0  0  0  0  0  0  0 13  0  0
    4.6160  -11.6610    1.3100 C   0  0  0  0  0  0  0  0  0 14  0  0
    5.0190   -5.8980    1.5150 C   0  0  0  0  0  0  0  0  0 15  0  0
    7.3820   -6.2290    1.4440 N   0  0  0  0  0  0  0  0  0 16  0  0
    6.6330   -4.0720    1.6200 N   0  0  0  0  0  0  0  0  0 17  0  0
    3.9660   -4.9400    1.7060 N   0  0  0  0  0  0  0  0  0 18  0  0
    1.7150   -3.1940    1.7410 N   0  0  0  0  0  0  0  0  0 19  0  0
    8.3190   -9.8250    1.0460 O   0  0  0  0  0  0  0  0  0 20  0  0
 11  8  1  0
 11 18  1  0
 20  3  1  0
  8 19  1  0
 10  3  2  0
 10 13  1  0
  3  2  1  0
 13 14  2  0
  2  1  2  0
  2  4  1  0
 14  1  1  0
  4  7  1  0
  4  5  2  0
  7 16  2  0
 16  6  1  0
  5 15  1  0
  6 15  2  0
  6 17  1  0
 15 18  1  0
 18  9  1  0
 19 12  1  0
  9 12  1  0
M  CHG  1  19   1
M  END

$$$$
