5BW
     RDKit          3D

 24 27  0  0  0  0  0  0  0  0999 V2000
    1.6824   -2.7009   -1.1252 C   0  0  0  0  0  0  0  0  0  1  0  0
    0.6431   -2.7057   -2.0601 C   0  0  0  0  0  0  0  0  0  2  0  0
   -0.4201   -3.5647   -1.8704 C   0  0  0  0  0  0  0  0  0  3  0  0
   -0.4296   -4.4233   -0.7873 C   0  0  0  0  0  0  0  0  0  4  0  0
    0.6111   -4.4275    0.1339 N   0  0  0  0  0  0  0  0  0  5  0  0
    1.6341   -3.5631   -0.0457 C   0  0  0  0  0  0  0  0  0  6  0  0
    2.6105   -3.5602    0.8721 N   0  0  0  0  0  0  0  0  0  7  0  0
    3.9473   -3.0041    0.7165 C   0  0  0  0  0  0  0  0  0  8  0  0
    4.6547   -3.7811    1.7776 C   0  0  1  0  0  0  0  0  0  9  0  0
    3.7051   -3.6690    2.8922 C   0  0  0  0  0  0  0  0  0 10  0  0
    2.5963   -4.3290    2.0810 C   0  0  2  0  0  0  0  0  0 11  0  0
    3.2300   -5.6982    1.7958 C   0  0  0  0  0  0  0  0  0 12  0  0
    4.5588   -5.1885    1.3351 N   0  0  0  0  0  0  0  0  0 13  0  0
    5.6302   -5.9650    1.3945 C   0  0  0  0  0  0  0  0  0 14  0  0
    5.4595   -7.4442    1.2754 C   0  0  0  0  0  0  0  0  0 15  0  0
    6.6777   -8.3352    1.2173 C   0  0  0  0  0  0  0  0  0 16  0  0
    7.7883   -7.7745    1.2047 O   0  0  0  0  0  0  0  0  0 17  0  0
    6.4593   -9.7297    1.2234 C   0  0  0  0  0  0  0  0  0 18  0  0
    5.1811  -10.3483    1.4271 C   0  0  0  0  0  0  0  0  0 19  0  0
    5.0518  -11.7174    1.4344 C   0  0  0  0  0  0  0  0  0 20  0  0
    6.1608  -12.5397    1.2757 C   0  0  0  0  0  0  0  0  0 21  0  0
    7.4215  -11.9838    1.0885 C   0  0  0  0  0  0  0  0  0 22  0  0
    7.5484  -10.6016    1.0459 C   0  0  0  0  0  0  0  0  0 23  0  0
    8.7480   -9.9951    0.7874 O   0  0  0  0  0  0  0  0  0 24  0  0
 20 21  2  0
 20 19  1  0
 21 22  1  0
  4  3  2  0
  4  5  1  0
 19 18  2  0
 22 23  2  0
  3  2  1  0
  5  6  2  0
 18 23  1  0
 18 16  1  0
 23 24  1  0
  2  1  2  0
 11 12  1  6
 12 13  1  0
  6  1  1  0
  6  7  1  0
 15 16  1  0
 15 14  2  0
 16 17  2  0
 11  7  1  0
 11 10  1  0
  7  8  1  0
 13 14  1  0
 13  9  1  0
 10  9  1  0
  9  8  1  6
M  END
$$$$
