VLC
     RDKit          3D

 33 37  0  0  0  0  0  0  0  0999 V2000
    8.2102  -10.0096    1.0455 O   0  0  0  0  0  0  0  0  0  1  0  0
    6.9753  -10.5583    1.1919 C   0  0  0  0  0  0  0  0  0  2  0  0
    6.8889  -11.9527    1.1717 C   0  0  0  0  0  0  0  0  0  3  0  0
    5.6539  -12.5715    1.2745 C   0  0  0  0  0  0  0  0  0  4  0  0
    4.5116  -11.8158    1.4106 C   0  0  0  0  0  0  0  0  0  5  0  0
    4.5876  -10.4318    1.4401 C   0  0  0  0  0  0  0  0  0  6  0  0
    5.8119   -9.7743    1.2947 C   0  0  0  0  0  0  0  0  0  7  0  0
    5.8668   -8.2884    1.3417 C   0  0  0  0  0  0  0  0  0  8  0  0
    4.7228   -7.4971    1.4873 C   0  0  0  0  0  0  0  0  0  9  0  0
    7.0880   -7.7449    1.2632 N   0  0  0  0  0  0  0  0  0 10  0  0
    7.2517   -6.4028    1.3454 N   0  0  0  0  0  0  0  0  0 11  0  0
    6.1899   -5.5986    1.4915 C   0  0  0  0  0  0  0  0  0 12  0  0
    6.4253   -4.2791    1.5560 N   0  0  0  0  0  0  0  0  0 13  0  0
    4.8708   -6.1155    1.5354 C   0  0  0  0  0  0  0  0  0 14  0  0
    3.6897   -5.2253    1.6630 N   0  0  0  0  0  0  0  0  0 15  0  0
    3.2764   -4.5151    0.4092 C   0  0  0  0  0  0  0  0  0 16  0  0
    2.2876   -3.3847    0.7591 C   0  0  2  0  0  0  0  0  0 17  0  0
    2.5449   -5.7028    2.5060 C   0  0  0  0  0  0  0  0  0 18  0  0
    1.5503   -4.5393    2.7178 C   0  0  1  0  0  0  0  0  0 19  0  0
    2.1941   -3.2431    3.2216 C   0  0  0  0  0  0  0  0  0 20  0  0
    2.7078   -2.5076    1.9441 C   0  0  0  0  0  0  0  0  0 21  0  0
    1.0961   -4.0986    1.3398 N   0  0  0  0  0  0  0  0  0 22  0  0
    0.0445   -4.6686    0.4820 C   0  0  0  0  0  0  0  0  0 23  0  0
   -0.7105   -5.7221    0.9802 C   0  0  0  0  0  0  0  0  0 24  0  0
   -1.7238   -6.2186    0.1796 C   0  0  0  0  0  0  0  0  0 25  0  0
   -2.0501   -5.7189   -1.0065 N   0  0  0  0  0  0  0  0  0 26  0  0
   -1.3255   -4.6694   -1.4403 C   0  0  0  0  0  0  0  0  0 27  0  0
   -0.2633   -4.1178   -0.7516 C   0  0  0  0  0  0  0  0  0 28  0  0
   -2.4275   -7.2641    0.6889 O   0  0  0  0  0  0  0  0  0 29  0  0
   -1.7397   -8.5273    0.8485 C   0  0  0  0  0  0  0  0  0 30  0  0
   -2.7284   -9.6534    0.7901 C   0  0  0  0  0  0  0  0  0 31  0  0
   -3.8096   -9.4242    1.6854 O   0  0  0  0  0  0  0  0  0 32  0  0
   -5.0378  -10.0325    1.2904 C   0  0  0  0  0  0  0  0  0 33  0  0
 22 17  1  0
 17 21  1  1
 21 20  1  0
 19 20  1  6
 22 19  1  0
 19 18  1  0
 18 15  1  0
 16 15  1  0
 17 16  1  0
 15 14  1  0
 14  9  1  0
  9  8  2  0
 10  8  1  0
 11 10  2  0
 12 11  1  0
 14 12  2  0
 13 12  1  0
  8  7  1  0
  7  2  1  0
  2  1  1  0
  3  2  2  0
  4  3  1  0
  5  4  2  0
  6  5  1  0
  7  6  2  0
 23 22  1  0
 23 28  1  0
 28 27  2  0
 27 26  1  0
 26 25  2  0
 29 25  1  0
 30 29  1  0
 31 30  1  0
 32 31  1  0
 33 32  1  0
 25 24  1  0
 24 23  2  0
M  END
$$$$
