A1JLV
     RDKit          3D

 38 43  0  0  0  0  0  0  0  0999 V2000
    6.0873   -5.3805    1.6076 C   0  0  0  0  0  0  0  0  0  1  0  0
    6.1447   -4.0532    1.5704 N   0  0  0  0  0  0  0  0  0  2  0  0
    8.6828   -9.4144    1.2181 O   0  0  0  0  0  0  0  0  0  3  0  0
    6.1452   -8.0949    1.6140 C   0  0  0  0  0  0  0  0  0  4  0  0
    7.1775   -6.0417    1.2028 N   0  0  0  0  0  0  0  0  0  5  0  0
    6.3035   -9.5746    1.5686 C   0  0  0  0  0  0  0  0  0  6  0  0
    7.2016   -7.3875    1.2076 N   0  0  0  0  0  0  0  0  0  7  0  0
    5.2015  -10.4159    1.7165 C   0  0  0  0  0  0  0  0  0  8  0  0
    3.7885   -5.3862    2.4758 N   0  0  0  0  0  0  0  0  0  9  0  0
    5.3374  -11.7891    1.6746 C   0  0  0  0  0  0  0  0  0 10  0  0
    1.5533   -3.9746    3.3348 N   0  0  0  0  0  0  0  0  0 11  0  0
    6.5837  -12.3519    1.4820 C   0  0  0  0  0  0  0  0  0 12  0  0
   -2.1594   -4.9351    5.0171 N   0  0  0  0  0  0  0  0  0 13  0  0
    7.6920  -11.5513    1.3288 C   0  0  0  0  0  0  0  0  0 14  0  0
   -4.1420   -9.3790    2.5651 N   0  0  0  0  0  0  0  0  0 15  0  0
    7.5643  -10.1660    1.3710 C   0  0  0  0  0  0  0  0  0 16  0  0
    4.9860   -7.4616    2.0442 C   0  0  0  0  0  0  0  0  0 17  0  0
    4.9399   -6.0800    2.0466 C   0  0  0  0  0  0  0  0  0 18  0  0
    2.6538   -5.1528    1.5601 C   0  0  0  0  0  0  0  0  0 19  0  0
    1.8822   -3.8965    1.9147 C   0  0  2  0  0  0  0  0  0 20  0  0
    2.7627   -2.6513    1.8655 C   0  0  0  0  0  0  0  0  0 21  0  0
    3.2874   -2.4703    3.3074 C   0  0  0  0  0  0  0  0  0 22  0  0
    2.7988   -3.7093    4.0470 C   0  0  2  0  0  0  0  0  0 23  0  0
    3.6853   -4.9283    3.8749 C   0  0  0  0  0  0  0  0  0 24  0  0
    0.3133   -4.2827    3.9002 C   0  0  0  0  0  0  0  0  0 25  0  0
   -0.0075   -3.9138    5.2015 C   0  0  0  0  0  0  0  0  0 26  0  0
   -1.2440   -4.2511    5.7148 C   0  0  0  0  0  0  0  0  0 27  0  0
   -1.8539   -5.3003    3.7581 C   0  0  0  0  0  0  0  0  0 28  0  0
   -2.8771   -6.0523    3.0147 C   0  0  0  0  0  0  0  0  0 29  0  0
   -3.4232   -7.1845    3.4165 C   0  0  0  0  0  0  0  0  0 30  0  0
   -4.4451   -7.9316    2.6247 C   0  0  0  0  0  0  0  0  0 31  0  0
   -5.2384  -10.1757    1.9928 C   0  0  0  0  0  0  0  0  0 32  0  0
   -5.4723   -9.9957    0.5048 C   0  0  0  0  0  0  0  0  0 33  0  0
   -4.2739  -10.3331   -0.3727 C   0  0  0  0  0  0  0  0  0 34  0  0
   -3.3659  -11.4182    0.1895 C   0  0  0  0  0  0  0  0  0 35  0  0
   -2.5979  -11.0430    1.4540 C   0  0  0  0  0  0  0  0  0 36  0  0
   -2.8190   -9.6292    1.9667 C   0  0  0  0  0  0  0  0  0 37  0  0
   -0.6309   -4.9925    3.1726 C   0  0  0  0  0  0  0  0  0 38  0  0
 31 30  1  0
 31 15  1  0
 29 30  2  0
 29 28  1  0
 33 32  1  0
 33 34  1  0
 13 28  1  0
 13 27  2  0
 28 38  2  0
 32 15  1  0
 27 26  1  0
 15 37  1  0
 34 35  1  0
 38 25  1  0
 26 25  2  0
 25 11  1  0
 37 36  1  0
 20 21  1  1
 21 22  1  0
 11 20  1  0
 11 23  1  0
 20 19  1  0
 35 36  1  0
 23 22  1  6
 23 24  1  0
 19  9  1  0
 24  9  1  0
  9 18  1  0
  2  1  1  0
 18  1  1  0
 18 17  2  0
  1  5  2  0
 17  4  1  0
  5  7  1  0
  4  7  2  0
  4  6  1  0
  8  6  2  0
  8 10  1  0
  6 16  1  0
 10 12  2  0
 16  3  1  0
 16 14  2  0
 12 14  1  0
M  END
$$$$
