IF8
     RDKit          3D

 30 35  0  0  0  0  0  0  0  0999 V2000
    4.0967  -10.4389    1.1174 C   0  0  0  0  0  0  0  0  0  1  0  0
    5.0594   -9.4312    1.1419 C   0  0  0  0  0  0  0  0  0  2  0  0
    6.4452   -9.7462    1.1453 C   0  0  0  0  0  0  0  0  0  3  0  0
    5.6855   -7.1137    1.2554 C   0  0  0  0  0  0  0  0  0  4  0  0
    7.4382   -8.6554    1.1116 C   0  0  0  0  0  0  0  0  0  5  0  0
    1.1203   -6.9229    0.8043 C   0  0  0  0  0  0  0  0  0  6  0  0
    5.8650   -4.6202    1.3493 C   0  0  2  0  0  0  0  0  0  7  0  0
    0.2325   -4.5461    0.9762 C   0  0  1  0  0  0  0  0  0  8  0  0
   -0.7016   -4.6469   -0.2324 C   0  0  0  0  0  0  0  0  0  9  0  0
   -0.5896   -4.5577    2.2683 C   0  0  0  0  0  0  0  0  0 10  0  0
    5.8189   -3.8446    0.0347 C   0  0  0  0  0  0  0  0  0 11  0  0
    6.7933  -11.1140    1.1296 C   0  0  0  0  0  0  0  0  0 12  0  0
    5.8296  -12.1035    1.0712 C   0  0  0  0  0  0  0  0  0 13  0  0
    4.4893  -11.7607    1.0772 C   0  0  0  0  0  0  0  0  0 14  0  0
    4.6880   -8.0722    1.1143 N   0  0  0  0  0  0  0  0  0 15  0  0
    6.9768   -7.3549    1.2280 N   0  0  0  0  0  0  0  0  0 16  0  0
    3.4442   -7.4100    1.0539 C   0  0  0  0  0  0  0  0  0 17  0  0
    3.6971   -6.0508    1.2125 C   0  0  0  0  0  0  0  0  0 18  0  0
    5.0897   -5.8845    1.3305 N   0  0  0  0  0  0  0  0  0 19  0  0
    8.6320   -8.8651    0.8873 O   0  0  0  0  0  0  0  0  0 20  0  0
    8.5492  -11.7389    1.4434 Br  0  0  0  0  0  0  0  0  0 21  0  0
    2.1452   -7.8614    0.8460 C   0  0  0  0  0  0  0  0  0 22  0  0
    1.3637   -5.5568    0.9768 C   0  0  0  0  0  0  0  0  0 23  0  0
    2.6674   -5.1160    1.1868 C   0  0  0  0  0  0  0  0  0 24  0  0
   -1.7571   -3.5569   -0.2044 C   0  0  0  0  0  0  0  0  0 25  0  0
   -2.5300   -3.6124    1.0688 N   0  0  0  0  0  0  0  0  0 26  0  0
   -1.6460   -3.4682    2.2591 C   0  0  0  0  0  0  0  0  0 27  0  0
    5.4378   -3.6233    2.4375 C   0  0  0  0  0  0  0  0  0 28  0  0
    5.9142   -2.3969    0.4423 C   0  0  0  0  0  0  0  0  0 29  0  0
    5.1435   -2.3297    1.6957 C   0  0  0  0  0  0  0  0  0 30  0  0
 29 30  1  0
 29 11  1  0
 30 28  1  0
 28  7  1  0
 11  7  1  0
  7 19  1  6
 20  5  2  0
 16  5  1  0
 16  4  2  0
 19  4  1  0
 19 18  1  0
  5  3  1  0
  4 15  1  0
 18 24  1  0
 18 17  2  0
 24 23  2  0
 21 12  1  0
  3 12  2  0
  3  2  1  0
 15 17  1  0
 15  2  1  0
 17 22  1  0
 12 13  1  0
  2  1  2  0
  8 23  1  1
 23  6  1  0
  8 10  1  0
  8  9  1  0
 10 27  1  0
 27 26  1  0
  9 25  1  0
 25 26  1  0
 22  6  2  0
 13 14  2  0
  1 14  1  0
M  END
$$$$
