A1A1P
     RDKit          3D

 30 35  0  0  0  0  0  0  0  0999 V2000
    3.1112   -7.8779    0.9671 C   0  0  0  0  0  0  0  0  0  1  0  0
    5.2882   -7.4894    1.7371 C   0  0  0  0  0  0  0  0  0  2  0  0
   -3.0414   -4.6235   -0.3665 N   0  0  0  0  0  0  0  0  0  3  0  0
    0.8556   -6.2742    0.6276 C   0  0  0  0  0  0  0  0  0  4  0  0
    4.3476   -8.4844    1.2355 N   0  0  0  0  0  0  0  0  0  5  0  0
    0.7966   -7.6459    0.3879 C   0  0  0  0  0  0  0  0  0  6  0  0
    1.9145   -8.4593    0.5572 C   0  0  0  0  0  0  0  0  0  7  0  0
    8.2516  -11.9000    1.5876 Cl  0  0  0  0  0  0  0  0  0  8  0  0
    6.6025  -11.4396    1.2863 C   0  0  0  0  0  0  0  0  0  9  0  0
    6.2058  -10.0911    1.3122 C   0  0  0  0  0  0  0  0  0 10  0  0
    7.1898   -8.9710    1.3563 C   0  0  0  0  0  0  0  0  0 11  0  0
    8.3828   -9.1543    1.1702 O   0  0  0  0  0  0  0  0  0 12  0  0
    5.7031  -12.4671    1.0752 C   0  0  0  0  0  0  0  0  0 13  0  0
    4.3666  -12.1753    0.8908 C   0  0  0  0  0  0  0  0  0 14  0  0
    3.9271  -10.8655    0.9090 C   0  0  0  0  0  0  0  0  0 15  0  0
    4.8203   -9.8192    1.1177 C   0  0  0  0  0  0  0  0  0 16  0  0
    3.1871   -6.5112    1.2189 C   0  0  0  0  0  0  0  0  0 17  0  0
    4.5801   -6.1073    1.6685 C   0  0  2  0  0  0  0  0  0 18  0  0
    5.2943   -5.1428    0.6982 C   0  0  0  0  0  0  0  0  0 19  0  0
    4.8608   -3.6835    0.8228 C   0  0  0  0  0  0  0  0  0 20  0  0
    4.9945   -3.1888    2.2584 C   0  0  0  0  0  0  0  0  0 21  0  0
    4.2015   -4.0653    3.2146 C   0  0  0  0  0  0  0  0  0 22  0  0
    4.6237   -5.5264    3.0994 C   0  0  0  0  0  0  0  0  0 23  0  0
    6.7048   -7.7306    1.4957 N   0  0  0  0  0  0  0  0  0 24  0  0
    2.0579   -5.7268    1.0520 C   0  0  0  0  0  0  0  0  0 25  0  0
   -0.3424   -5.3684    0.4115 C   0  0  2  0  0  0  0  0  0 26  0  0
   -1.5605   -5.7348    1.2638 C   0  0  0  0  0  0  0  0  0 27  0  0
   -2.6729   -4.7135    1.0676 C   0  0  0  0  0  0  0  0  0 28  0  0
   -1.8845   -4.2202   -1.2011 C   0  0  0  0  0  0  0  0  0 29  0  0
   -0.7586   -5.2327   -1.0586 C   0  0  0  0  0  0  0  0  0 30  0  0
 21 20  1  0
 21 22  1  0
 20 19  1  0
 22 23  1  0
 18 19  1  6
 23 18  1  0
 12 11  2  0
 24 11  1  0
 24  2  2  0
 18  2  1  0
 18 17  1  0
 11 10  1  0
  2  5  1  0
 17 25  2  0
 17  1  1  0
 25  4  1  0
  8  9  1  0
 10  9  1  0
 10 16  2  0
  5  1  1  0
  5 16  1  0
  1  7  2  0
  9 13  2  0
 16 15  1  0
 26  4  1  6
  4  6  2  0
 26 30  1  0
 26 27  1  0
 30 29  1  0
 29  3  1  0
  7  6  1  0
 27 28  1  0
 13 14  1  0
 28  3  1  0
 15 14  2  0
M  END
$$$$
