A1I45
     RDKit          3D

 22 25  0  0  0  0  0  0  0  0999 V2000
    6.7947  -12.1911    1.4059 C   0  0  0  0  0  0  0  0  0  1  0  0
    5.4840  -12.6377    1.4798 C   0  0  0  0  0  0  0  0  0  2  0  0
    4.4271  -11.7382    1.5059 C   0  0  0  0  0  0  0  0  0  3  0  0
    4.5135   -4.4268    1.3072 C   0  0  0  0  0  0  0  0  0  4  0  0
    3.0496   -4.1889    1.5898 C   0  0  0  0  0  0  0  0  0  5  0  0
    2.1441   -4.0239    0.5482 C   0  0  0  0  0  0  0  0  0  6  0  0
    0.7986   -3.8062    0.8052 C   0  0  0  0  0  0  0  0  0  7  0  0
    0.3405   -3.7496    2.1104 C   0  0  0  0  0  0  0  0  0  8  0  0
    1.2318   -3.9122    3.1572 C   0  0  0  0  0  0  0  0  0  9  0  0
    2.5780   -4.1297    2.8974 C   0  0  0  0  0  0  0  0  0 10  0  0
    6.8071   -7.3846    1.2757 C   0  0  0  0  0  0  0  0  0 11  0  0
    5.8603   -8.4443    1.3508 C   0  0  0  0  0  0  0  0  0 12  0  0
    6.0090   -9.8800    1.3817 C   0  0  0  0  0  0  0  0  0 13  0  0
    8.0239   -7.5352    1.2225 O   0  0  0  0  0  0  0  0  0 14  0  0
    4.4887   -8.1253    1.4072 C   0  0  0  0  0  0  0  0  0 15  0  0
    3.7831   -9.2946    1.4735 N   0  0  0  0  0  0  0  0  0 16  0  0
    4.6859  -10.3670    1.4596 C   0  0  0  0  0  0  0  0  0 17  0  0
    7.0683  -10.8235    1.3560 C   0  0  0  0  0  0  0  0  0 18  0  0
    8.3663  -10.4250    1.2810 O   0  0  0  0  0  0  0  0  0 19  0  0
    6.2702   -6.1101    1.2664 N   0  0  0  0  0  0  0  0  0 20  0  0
    4.9179   -5.8649    1.3256 C   0  0  0  0  0  0  0  0  0 21  0  0
    3.9560   -6.8723    1.3997 N   0  0  0  0  0  0  0  0  0 22  0  0
  4  5  1  0
  4 21  1  0
 14 11  2  0
 20 11  1  0
 20 21  2  0
 10  5  1  0
 10  9  2  0
  5  6  2  0
 11 12  1  0
 21 22  1  0
  9  8  1  0
  6  7  1  0
  8  7  2  0
 19 18  1  0
 12 15  2  0
 12 13  1  0
 22 15  1  0
 15 16  1  0
 13 18  2  0
 13 17  1  0
 18  1  1  0
 16 17  1  0
 17  3  2  0
  1  2  2  0
  3  2  1  0
M  END
$$$$
