A1BB5
     RDKit          3D

 21 24  0  0  0  0  0  0  0  0999 V2000
    7.0488   -5.7344    1.0800 N   0  0  0  0  0  0  0  0  0  1  0  0
    6.0137   -3.6185    1.1518 N   0  0  0  0  0  0  0  0  0  2  0  0
    4.8200  -11.3208    1.4114 C   0  0  0  0  0  0  0  0  0  3  0  0
    4.7525   -9.9383    1.4198 C   0  0  0  0  0  0  0  0  0  4  0  0
    5.9407   -9.1672    1.3694 C   0  0  0  0  0  0  0  0  0  5  0  0
    5.8865   -7.6828    1.3417 C   0  0  0  0  0  0  0  0  0  6  0  0
    4.6806   -6.9852    1.4794 C   0  0  0  0  0  0  0  0  0  7  0  0
    5.9519   -5.0039    1.2028 C   0  0  0  0  0  0  0  0  0  8  0  0
    2.5555   -2.7924    2.3844 C   0  0  0  0  0  0  0  0  0  9  0  0
    2.3190   -5.1926    0.8359 C   0  0  0  0  0  0  0  0  0 10  0  0
    8.3491   -9.1522    1.2373 O   0  0  0  0  0  0  0  0  0 11  0  0
    7.1893   -9.8301    1.2974 C   0  0  0  0  0  0  0  0  0 12  0  0
    7.2477  -11.2139    1.2971 C   0  0  0  0  0  0  0  0  0 13  0  0
    6.0638  -11.9488    1.3527 C   0  0  0  0  0  0  0  0  0 14  0  0
    4.6987   -5.5943    1.4039 C   0  0  0  0  0  0  0  0  0 15  0  0
    7.0083   -7.0128    1.1408 N   0  0  0  0  0  0  0  0  0 16  0  0
    5.0260   -2.8767    1.9541 C   0  0  0  0  0  0  0  0  0 17  0  0
    3.6579   -3.3700    1.4991 C   0  0  1  0  0  0  0  0  0 18  0  0
    1.2776   -3.0856    1.7182 N   0  0  0  0  0  0  0  0  0 19  0  0
    1.0978   -4.5378    1.5110 C   0  0  0  0  0  0  0  0  0 20  0  0
    3.5381   -4.8243    1.5664 N   0  0  0  0  0  0  0  0  0 21  0  0
  3 14  1  0
  3  4  2  0
 14 13  2  0
  4  5  1  0
 13 12  1  0
  5 12  2  0
  5  6  1  0
 12 11  1  0
 20 10  1  0
 20 19  1  0
 10 21  1  0
  7  6  1  0
  7 15  2  0
  6 16  2  0
 19  9  1  0
 21 15  1  0
 21 18  1  0
 15  8  1  0
 16  1  1  0
 18  9  1  1
 18 17  1  0
  8  1  2  0
  8  2  1  0
  2 17  1  0
M  END
$$$$
