5C0
     RDKit          3D

 27 31  0  0  0  0  0  0  0  0999 V2000
    2.7685   -3.5280    0.2569 C   0  0  0  0  0  0  0  0  0  1  0  0
    2.3324   -4.7559    1.0209 C   0  0  0  0  0  0  0  0  0  2  0  0
    3.3078   -5.1300    2.1335 C   0  0  2  0  0  0  0  0  0  3  0  0
    4.4806   -1.8772   -0.2229 N   0  0  0  0  0  0  0  0  0  4  0  0
    3.2944   -4.0942    3.2649 C   0  0  0  0  0  0  0  0  0  5  0  0
    4.4267   -3.0798    2.9130 C   0  0  0  0  0  0  0  0  0  6  0  0
    2.3588   -1.7561   -1.3571 N   0  0  0  0  0  0  0  0  0  7  0  0
    5.0179   -3.5779    1.5835 C   0  0  2  0  0  0  0  0  0  8  0  0
    4.0821   -2.9559    0.4633 C   0  0  0  0  0  0  0  0  0  9  0  0
    3.6012   -1.3470   -1.0800 C   0  0  0  0  0  0  0  0  0 10  0  0
    5.5336   -5.9807    1.3062 C   0  0  0  0  0  0  0  0  0 11  0  0
    4.6815   -5.0095    1.6309 N   0  0  0  0  0  0  0  0  0 12  0  0
    5.3577   -7.3235    1.4600 C   0  0  0  0  0  0  0  0  0 13  0  0
    6.5071   -8.2228    1.3652 C   0  0  0  0  0  0  0  0  0 14  0  0
    6.3356   -9.7176    1.3735 C   0  0  0  0  0  0  0  0  0 15  0  0
    7.6757   -7.7641    1.2625 O   0  0  0  0  0  0  0  0  0 16  0  0
    7.4706  -10.5300    1.1829 C   0  0  0  0  0  0  0  0  0 17  0  0
    8.6932   -9.9742    0.8788 O   0  0  0  0  0  0  0  0  0 18  0  0
    7.3586  -11.9241    1.2645 C   0  0  0  0  0  0  0  0  0 19  0  0
    6.1173  -12.5164    1.4810 C   0  0  0  0  0  0  0  0  0 20  0  0
    4.9959  -11.7344    1.6200 C   0  0  0  0  0  0  0  0  0 21  0  0
    5.0966  -10.3487    1.5881 C   0  0  0  0  0  0  0  0  0 22  0  0
    1.9164   -2.8422   -0.6886 C   0  0  0  0  0  0  0  0  0 23  0  0
    0.6425   -3.2193   -0.9140 N   0  0  0  0  0  0  0  0  0 24  0  0
   -0.2504   -2.5312   -1.8386 C   0  0  2  0  0  0  0  0  0 25  0  0
   -1.2640   -3.3293   -2.5588 C   0  0  0  0  0  0  0  0  0 26  0  0
   -0.0952   -2.7782   -3.2861 C   0  0  0  0  0  0  0  0  0 27  0  0
 21 20  1  0
 21 22  2  0
 20 19  2  0
 22 15  1  0
 19 17  1  0
 26 27  1  0
 26 25  1  0
 15 17  2  0
 15 14  1  0
 17 18  1  0
 27 25  1  0
 25 24  1  1
 24 23  1  0
  3  2  1  6
  2  1  1  0
 13 14  1  0
 13 11  2  0
 14 16  2  0
  3 12  1  0
  3  5  1  0
 23  1  1  0
 23  7  2  0
  1  9  2  0
 11 12  1  0
 12  8  1  0
  5  6  1  0
  7 10  1  0
  9  8  1  0
  9  4  1  0
  8  6  1  1
 10  4  2  0
M  END
$$$$
