A1I5P
     RDKit          3D

 14 15  0  0  0  0  0  0  0  0999 V2000
    6.3123   -7.2197    1.0709 C   0  0  0  0  0  0  0  0  0  1  0  0
    5.5337   -8.4764    1.0883 C   0  0  0  0  0  0  0  0  0  2  0  0
    6.0989   -9.8181    1.1874 C   0  0  0  0  0  0  0  0  0  3  0  0
    5.2073  -12.0968    1.2329 C   0  0  0  0  0  0  0  0  0  4  0  0
    5.0166  -10.7220    1.1552 C   0  0  0  0  0  0  0  0  0  5  0  0
    4.1520   -8.6402    1.0042 C   0  0  0  0  0  0  0  0  0  6  0  0
    7.5186   -7.1687    1.1245 O   0  0  0  0  0  0  0  0  0  7  0  0
    5.5252   -6.1401    0.9790 O   0  0  0  0  0  0  0  0  0  8  0  0
    6.1375   -4.9390    0.4549 C   0  0  0  0  0  0  0  0  0  9  0  0
    3.2072   -7.7017    0.8976 N   0  0  0  0  0  0  0  0  0 10  0  0
    3.8368   -9.9965    1.0461 N   0  0  0  0  0  0  0  0  0 11  0  0
    6.5054  -12.5758    1.3455 C   0  0  0  0  0  0  0  0  0 12  0  0
    7.5866  -11.6996    1.3761 C   0  0  0  0  0  0  0  0  0 13  0  0
    7.3922  -10.3279    1.2969 C   0  0  0  0  0  0  0  0  0 14  0  0
  9  8  1  0
  7  1  2  0
  8  1  1  0
  1  2  1  0
  2  3  1  0
  2  6  2  0
 14  3  1  0
 14 13  2  0
  3  5  2  0
 10  6  1  0
  6 11  1  0
 13 12  1  0
  5 11  1  0
  5  4  1  0
 12  4  2  0
M  END
$$$$
